<routes>
    <vType accel="1.0" decel="5.0" id="Car" color="yellow" length="4.5" maxSpeed="25.0" sigma="0.65" impatience="0.2" vClass="passenger" guiShape="passenger" />
    <vType accel="1.0" decel="5.0" id="EgoCarS" color="blue" length="4.5" maxSpeed="20.0" sigma="0.50" impatience="0.1" vClass="passenger" guiShape="passenger" />
    <vType accel="1.0" decel="5.0" id="EgoCarN" color="red" length="4.5" maxSpeed="20.0" sigma="0.50" impatience="0.1" vClass="passenger" guiShape="passenger" />
    <vType accel="1.0" decel="5.0" id="EgoCarE" color="green" length="4.5" maxSpeed="20.0" sigma="0.50" impatience="0.1" vClass="passenger" guiShape="passenger" />
    <vType accel="1.0" decel="5.0" id="EgoCarW" color="yellow" length="4.5" maxSpeed="20.0" sigma="0.50" impatience="0.1" vClass="passenger" guiShape="passenger" />

    <route id="route_ns" edges="n_0 0_s"/>
    <route id="route_sn" edges="s_0 0_n"/>
    <route id="route_ew" edges="e_0 0_w"/>
    <route id="route_we" edges="w_0 0_e"/>

    <route id="route_se" edges="s_0 0_e"/>
    <route id="route_sw" edges="s_0 0_w"/>

    <route id="route_en" edges="e_0 0_n"/>
    <route id="route_es" edges="e_0 0_s"/>

    <route id="route_ne" edges="n_0 0_e"/>
    <route id="route_nw" edges="n_0 0_w"/>

    <route id="route_wn" edges="w_0 0_n"/>
    <route id="route_ws" edges="w_0 0_s"/>
</routes>
