<?xml version="1.0" encoding="UTF-8"?>

<!-- generated on Sun 18 Mar 2018 10:53:51 PM EDT by SUMO gui Version 0.32.0
<?xml version="1.0" encoding="UTF-8"?>

<configuration xmlns:xsi="http://www.w3.org/2001/XMLSchema-instance" xsi:noNamespaceSchemaLocation="http://sumo.dlr.de/xsd/sumoConfiguration.xsd">

    <input>
        <net-file value="gym_traffic/envs/config/multiagents/cross.net.xml"/>
        <route-files value="gym_traffic/envs/config/multiagents/cross.rou.xml"/>
        <additional-files value="gym_traffic/envs/config/multiagents/cross.add.xml"/>
    </input>

    <time>
        <step-length value="0.1"/>
    </time>

    <traci_server>
        <remote-port value="39039"/>
    </traci_server>

    <gui_only>
        <gui-settings-file value="gym_traffic/envs/config/multiagents/view.settings.xml"/>
        <quit-on-end value="true"/>
        <start value="true"/>
        <tracker-interval value="0.1"/>
    </gui_only>

</configuration>
